ejcdf.txt
 08/19/93 UW ARCHIVE           100.0  1962 W IEEE 14 Bus Test Case
BUS DATA FOLLOWS                            03 ITEMS
   1 Bus 1     HV  1  1  3     0    0.0      0.0      0.0      0.0     0.0     0.0  1.050     0.0     0.0   0.0    0.0        0
   2 Bus 2     HV  1  1  0     0    0.0      400      250      0.0     0.0     0.0  0.000     0.0     0.0   0.0    0.0        0
   3 Bus 3     HV  1  1  2     0    0.0      0.0      0.0      200     0.0     0.0  1.040     0.0     0.0   0.0    0.0        0
-999
BRANCH DATA FOLLOWS                         03 ITEMS
   1    2  1  1 1 0  0.02000   0.04000     0.0000     0     0     0    0 0  0.0       0.0 0.0    0.0     0.0    0.0   0.0
   1    3  1  1 1 0  0.01000   0.03000     0.0000     0     0     0    0 0  0.0       0.0 0.0    0.0     0.0    0.0   0.0
   2    3  1  1 1 0  0.01250   0.02500     0.0000     0     0     0    0 0  0.0       0.0 0.0    0.0     0.0    0.0   0.0
-999
LOSS ZONES FOLLOWS                     1 ITEMS
  1 IEEE 14 BUS
-99
INTERCHANGE DATA FOLLOWS                 1 ITEMS
 1    2 Bus 2     HV    0.0  999.99  IEEE14  IEEE 14 Bus Test Case
-9
TIE LINES FOLLOWS                     0 ITEMS
-999
END OF DATA
